Circuit: * D:\Users\seth\Documents\Git\cc-led-driver\ltspice\Draft2.asc

c1: Increased Cpar to 2.232e-11
c2: Increased Cpar to 9.19e-13
c3: Increased Cpar to 9.19e-13
c4: Increased Cpar to 9.19e-13
c5: Increased Cpar to 9.19e-13
c6: Increased Cpar to 9.19e-13
c7: Increased Cpar to 9.19e-13
c8: Increased Cpar to 2.232e-11
.OP point found by inspection.
.step rdamp=1e-06
.step rdamp=0.01
.step rdamp=0.02
.step rdamp=0.03
.step rdamp=0.04
.step rdamp=0.05
.step rdamp=0.1
.step rdamp=0.2
.step rdamp=1

Date: Tue Oct 14 22:45:24 2025
Total elapsed time: 0.430 seconds.

tnom = 27
temp = 27
method = trap
totiter = 0
traniter = 0
tranpoints = 0
accept = 0
rejected = 0
matrix size = 4
fillins = 0
solver = Alternate
Avg thread counts: 16.0/0.0/0.0/1.7
Matrix Compiler1:       9 opcodes
Matrix Compiler2:      22 opcodes
