Circuit: * D:\Users\seth\Documents\Git\cc-led-driver\ltspice\Draft1.asc

c1: Increased Cpar to 9.455e-14
c2: Increased Cpar to 9.85e-12
c4: Increased Cpar to 9.455e-14
c5: Increased Cpar to 9.85e-12
c6: Increased Cpar to 5.6e-10
WARNING: Node ZDAMPED is floating.
WARNING: Node Z is floating.

.OP point found by inspection.

Date: Mon Oct 13 16:35:12 2025
Total elapsed time: 0.026 seconds.

tnom = 27
temp = 27
method = trap
totiter = 0
traniter = 0
tranpoints = 0
accept = 0
rejected = 0
matrix size = 2
fillins = 0
solver = Alternate
Avg thread counts: 16.0/0.0/0.0/1.8
Matrix Compiler1:       1 opcodes
Matrix Compiler2:       8 opcodes
