Circuit: * D:\Users\seth\Documents\Git\cc-led-driver\ltspice\inverting_integrator_amp_phase_margin.asc

Direct Newton iteration for .op point succeeded.

Date: Sun Sep 21 16:08:31 2025
Total elapsed time: 0.152 seconds.

tnom = 27
temp = 27
method = trap
totiter = 5
traniter = 0
tranpoints = 0
accept = 0
rejected = 0
matrix size = 137
fillins = 166
solver = Alternate
Avg thread counts: 16.0/0.0/16.0/1.8
Matrix Compiler1:     884 opcodes
Matrix Compiler2: 16.29 KB object code size
